LAMMPS (7 Aug 2019)
processors         * 1 1 # manually assign processors to spatial regions
atom_style         meso
dimension          2
newton             on
boundary           f f p
units              lj
read_data          data.initial
  orthogonal box = (0 0 -0.001) to (4.001 8.001 0.001)
  reading atoms ...
  15702 atoms
  reading velocities ...
  15702 velocities

variable           h equal 0.03
variable           c equal 10.0 # soundspeed for Tait's EOS
variable           dt equal 0.1*0.03/10
variable           nrun equal 15.0/0.0003

group              bc    type 2 # assign group name "bc" to boundary particles (type 2)
6000 atoms in group bc
group              water type 1 # assign group name "water" to water particles (type 1)
9702 atoms in group water

set                type 1 meso/e 1000
  9702 settings made for meso/e
set		   type 2 meso/e 41670
  6000 settings made for meso/e

pair_style         hybrid/overlay sph/rhosum 1 sph/taitwater sph/heatconduction
pair_coeff         * * sph/taitwater 1000.0 10 1.0 0.03
pair_coeff         1 1 sph/rhosum 0.03

pair_coeff	   * * sph/heatconduction 1.47e-3 0.03

fix                gfix water gravity -9.81 vector 0 1 0 # add gravity. This fix also computes potential energy of mass in gravity field.
fix                2d_fix all enforce2d

variable   tempe 	atom  ((c_e_peratom-1000)/(0.2*4117)+300)
variable   tempera	atom  ((c_e_peratom-500)/(0.1*4117)+300)

compute            rho_peratom all meso/rho/atom
compute            e_peratom all meso/e/atom
compute            esph all reduce sum c_e_peratom
compute            ke all ke
variable           etot equal c_esph+c_ke+f_gfix

fix                dtfix all dt/reset 1               NULL              0.0003             0.0005 units box

# time-integrate position, velocities, internal energy and density of water particles
fix                integrate_water_fix water meso

# time-integrate only internal energy and density of boundary particles
fix                integrate_bc_fix bc meso/stationary
dump               dump_id all custom 100 dump.lammpstrj id type xs ys zs mass c_rho_peratom c_e_peratom fx fy v_tempe v_tempera
dump_modify        dump_id first yes
thermo             10
thermo_style       custom step ke c_esph v_etot f_gfix press time f_dtfix
thermo_modify      norm no

neigh_modify       every 5 delay 0 check no
variable           skin equal 0.3*0.03
neighbor           0.009 bin
viscosity	   4P 1.856e-11 4209 0.04527 -3.376e-5

run                50000
  update every 5 steps, delay 0 steps, check no
Step KinEng c_esph v_etot f_gfix Press Time f_dtfix
0            0  2.59722e+08 2.5974132e+08    19320.854   -1.1300451            0            0
Averages over the last 2501 of 5001 rows, steps 25000 to 50000:
KinEng c_esph v_etot f_gfix Press f_dtfix
379.605 2.59736e+08 2.59741e+08 5418.18 167.47 30755.8
Loop time of 1002.33 on 1 procs for 50000 steps with 15702 atoms
